/*--------------------------------*- C++ -*----------------------------------*\
| =========                 |                                                 |
| \\      /  F ield         | OpenFOAM: The Open Source CFD Toolbox           |
|  \\    /   O peration     | Version:  5.x                                   |
|   \\  /    A nd           | Web:      www.OpenFOAM.org                      |
|    \\/     M anipulation  |                                                 |
\*---------------------------------------------------------------------------*/
/*   Windows 32 and 64 bit porting by blueCAPE: http://www.bluecape.com.pt   *\
|  Based on Windows porting (2.0.x v4) by Symscape: http://www.symscape.com   |
\*---------------------------------------------------------------------------*/
FoamFile
{
    version     2.0;
    format      ascii;
    class       polyBoundaryMesh;
    location    "constant/polyMesh";
    object      boundary;
}
// * * * * * * * * * * * * * * * * * * * * * * * * * * * * * * * * * * * * * //

4
(
    inlet
    {
        type            mappedPatch;
        inGroups        1(mappedPatch);
        nFaces          32;
        startFace       24811;
        sampleMode      nearestCell;
        sampleRegion    region0;
        samplePatch     none;
        offsetMode      uniform;
        offset          (0.067 0 0);
    }
    outlet
    {
        type            patch;
        nFaces          56;
        startFace       24843;
    }
    walls
    {
        type            wall;
        inGroups        1(wall);
        nFaces          530;
        startFace       24899;
    }
    sides
    {
        type            empty;
        inGroups        1(empty);
        nFaces          25120;
        startFace       25429;
    }
)

// ************************************************************************* //
