/*--------------------------------*- C++ -*----------------------------------*\
| =========                 |                                                 |
| \\      /  F ield         | OpenFOAM: The Open Source CFD Toolbox           |
|  \\    /   O peration     | Version:  3.0.1                                 |
|   \\  /    A nd           | Web:      www.OpenFOAM.org                      |
|    \\/     M anipulation  |                                                 |
\*---------------------------------------------------------------------------*/
FoamFile
{
    version     2.0;
    format      ascii;
    class       dictionary;
    location    "system";
    object      fvSchemes;
}
// * * * * * * * * * * * * * * * * * * * * * * * * * * * * * * * * * * * * * //

ddtSchemes
{
    default       backward; // CrankNicolson  0.5; steadyState;
}

gradSchemes
{
    default       Gauss linear; // fourth; // Gauss linear; // Gauss linear;
}

// pimple/piso DNS-LES
divSchemes
{
    default                       	none;
    div(phi,U)                    	Gauss linear;
    div(phi,k)                    	Gauss limitedLinear 1;
    div(phi,omega)                	Gauss limitedLinear 1;     
    div(phi,epsilon)              	Gauss limitedLinear 1;
    div(B)                          Gauss linear; 
    div((nuEff*dev2(T(grad(U))))) 	Gauss linear;
    div(phi,RMean)        	      Gauss linear;
    div(phi,R)                      Gauss linear;
    div(R)                          Gauss linear;
    div(nonlinearStress)            Gauss linear;
    div(div(phi,U))                 Gauss linear;
    div((nu*dev2(T(grad(U)))))      Gauss linear;  
}

laplacianSchemes
{
    default         Gauss linear limited 1;
}

interpolationSchemes
{
    default         linear;
}

snGradSchemes
{
    default         corrected;
}

fluxRequired
{
    default         no;
    p               ;
}

wallDist
{
    method meshWave;
}


// ************************************************************************* //
