/*--------------------------------*- C++ -*----------------------------------*\
| =========                 |                                                 |
| \\      /  F ield         | OpenFOAM: The Open Source CFD Toolbox           |
|  \\    /   O peration     | Version:  5                                     |
|   \\  /    A nd           | Web:      www.OpenFOAM.org                      |
|    \\/     M anipulation  |                                                 |
\*---------------------------------------------------------------------------*/
FoamFile
{
    version     2.0;
    format      ascii;
    class       dictionary;
    location    "constant";
    object      scalarListList;
}
// * * * * * * * * * * * * * * * * * * * * * * * * * * * * * * * * * * * * * //

(
// (x y z) (u v w) d rho mDot
(-0.13217 0.052443 0.0019445)(7.2977 0 0) 0.0003 8800 1
(-0.13217 0.052566 0.0033953)(4.615 0 0) 0.0003 8800 1
(-0.13217 0.031437 -0.00051923)(3.8873 0 0) 0.0003 8800 1
(-0.13217 0.046026 0.0007716)(9.1574 0 0) 0.0003 8800 1
(-0.13217 0.048421 -0.0041609)(2.8645 0 0) 0.0003 8800 1
(-0.13217 0.028465 -6.8948e-05)(1.5874 0 0) 0.0003 8800 1
(-0.13217 0.039791 -0.0045071)(1.552 0 0) 0.0003 8800 1
(-0.13217 0.052316 -0.002265)(6.861 0 0) 0.0003 8800 1
(-0.13217 0.044089 0.0030092)(5.89 0 0) 0.0003 8800 1
(-0.13217 0.038817 0.0045812)(1.2747 0 0) 0.0003 8800 1
(-0.13217 0.052471 3.8726e-05)(8.59 0 0) 0.0003 8800 1
(-0.13217 0.031624 -0.0019794)(3.4263 0 0) 0.0003 8800 1
(-0.13217 0.056103 0.0024877)(5.4792 0 0) 0.0003 8800 1
(-0.13217 0.059463 -0.0030691)(3.4379 0 0) 0.0003 8800 1
(-0.13217 0.048316 -0.0021281)(7.6353 0 0) 0.0003 8800 1
(-0.13217 0.059046 -0.0026198)(4.1819 0 0) 0.0003 8800 1
(-0.13217 0.036657 0.0040374)(2.4476 0 0) 0.0003 8800 1
(-0.13217 0.057435 0.0031637)(3.9851 0 0) 0.0003 8800 1
(-0.13217 0.059309 0.00049407)(5.5546 0 0) 0.0003 8800 1
(-0.13217 0.049214 -0.0024475)(7.0221 0 0) 0.0003 8800 1
(-0.13217 0.065162 -0.00040143)(1.2961 0 0) 0.0003 8800 1
(-0.13217 0.041984 0.0040163)(3.149 0 0) 0.0003 8800 1
(-0.13217 0.05302 0.0017148)(7.441 0 0) 0.0003 8800 1
(-0.13217 0.049693 -0.00088873)(8.8818 0 0) 0.0003 8800 1
(-0.13217 0.030493 0.0010235)(3.0956 0 0) 0.0003 8800 1
(-0.13217 0.046932 0.0033609)(5.1464 0 0) 0.0003 8800 1
(-0.13217 0.041599 -0.00058495)(8.6678 0 0) 0.0003 8800 1
(-0.13217 0.065372 -0.00027763)(1.117 0 0) 0.0003 8800 1
(-0.13217 0.066266 0.0030285)(0.19734 0 0) 0.0003 8800 1
(-0.13217 0.064795 0.0011457)(1.5368 0 0) 0.0003 8800 1
(-0.13217 0.028851 -0.0016586)(1.7048 0 0) 0.0003 8800 1
(-0.13217 0.059683 -0.0030861)(3.3321 0 0) 0.0003 8800 1
(-0.13217 0.046933 -0.0021137)(7.7103 0 0) 0.0003 8800 1
(-0.13217 0.041831 -0.0042244)(2.5305 0 0) 0.0003 8800 1
(-0.13217 0.066096 -0.004694)(0.055537 0 0) 0.0003 8800 1
(-0.13217 0.036679 -0.0041095)(2.2857 0 0) 0.0003 8800 1
(-0.13217 0.041574 0.00064186)(8.6374 0 0) 0.0003 8800 1
(-0.13217 0.029553 -0.00078409)(2.4326 0 0) 0.0003 8800 1
(-0.13217 0.030963 -0.0042055)(1.0487 0 0) 0.0003 8800 1
(-0.13217 0.033519 -0.0029017)(3.5296 0 0) 0.0003 8800 1
(-0.13217 0.051504 -0.0044636)(1.7938 0 0) 0.0003 8800 1
(-0.13217 0.058105 -0.0029317)(4.1304 0 0) 0.0003 8800 1
(-0.13217 0.046801 -0.00056654)(9.2689 0 0) 0.0003 8800 1
(-0.13217 0.061741 -0.0040759)(1.3478 0 0) 0.0003 8800 1
(-0.13217 0.054932 0.00063585)(7.6462 0 0) 0.0003 8800 1
(-0.13217 0.032095 0.0028263)(2.9886 0 0) 0.0003 8800 1
(-0.13217 0.037612 0.00459)(1.1737 0 0) 0.0003 8800 1
(-0.13217 0.057895 0.00062807)(6.3054 0 0) 0.0003 8800 1
(-0.13217 0.065351 -0.0039686)(0.42158 0 0) 0.0003 8800 1
(-0.13217 0.060921 -0.00048468)(4.5423 0 0) 0.0003 8800 1
(-0.13217 0.061133 0.0034567)(2.3188 0 0) 0.0003 8800 1
(-0.13217 0.04072 0.00027875)(8.5339 0 0) 0.0003 8800 1
(-0.13217 0.046318 -0.0048955)(0.38822 0 0) 0.0003 8800 1
(-0.13217 0.027764 0.0042736)(0.26272 0 0) 0.0003 8800 1
(-0.13217 0.04546 -0.0037957)(3.9646 0 0) 0.0003 8800 1
(-0.13217 0.061128 -0.004656)(0.59057 0 0) 0.0003 8800 1
(-0.13217 0.043901 -0.0041922)(2.7361 0 0) 0.0003 8800 1
(-0.13217 0.058704 -0.00033958)(5.9342 0 0) 0.0003 8800 1
(-0.13217 0.065919 -0.0028143)(0.43055 0 0) 0.0003 8800 1
(-0.13217 0.053388 0.0019141)(7.0996 0 0) 0.0003 8800 1
(-0.13217 0.054224 7.8635e-05)(8.0346 0 0) 0.0003 8800 1
(-0.13217 0.053414 0.0034955)(4.2488 0 0) 0.0003 8800 1
(-0.13217 0.031611 -0.0016873)(3.5926 0 0) 0.0003 8800 1
(-0.13217 0.038139 0.0026721)(5.4871 0 0) 0.0003 8800 1
(-0.13217 0.062295 -0.0039394)(1.3713 0 0) 0.0003 8800 1
(-0.13217 0.063998 -0.0030913)(1.4146 0 0) 0.0003 8800 1
(-0.13217 0.052633 -0.0020599)(7.0952 0 0) 0.0003 8800 1
(-0.13217 0.04319 0.002415)(6.9829 0 0) 0.0003 8800 1
(-0.13217 0.048559 0.0049583)(0.15459 0 0) 0.0003 8800 1
(-0.13217 0.064339 -0.0036097)(0.96117 0 0) 0.0003 8800 1
(-0.13217 0.029164 -0.00071912)(2.1316 0 0) 0.0003 8800 1
(-0.13217 0.035238 -0.0023219)(4.955 0 0) 0.0003 8800 1
(-0.13217 0.058438 -0.0014016)(5.6313 0 0) 0.0003 8800 1
(-0.13217 0.064366 -0.0039746)(0.73079 0 0) 0.0003 8800 1
(-0.13217 0.058175 -0.0031466)(3.7785 0 0) 0.0003 8800 1
(-0.13217 0.033253 -0.00042276)(5.1185 0 0) 0.0003 8800 1
(-0.13217 0.041637 -0.0010381)(8.4179 0 0) 0.0003 8800 1
(-0.13217 0.036574 0.0027125)(4.9361 0 0) 0.0003 8800 1
(-0.13217 0.046165 0.0044617)(1.912 0 0) 0.0003 8800 1
(-0.13217 0.066316 -0.0030984)(0.16333 0 0) 0.0003 8800 1
(-0.13217 0.062012 0.0032571)(2.2005 0 0) 0.0003 8800 1
(-0.13217 0.050112 -0.00071771)(8.9196 0 0) 0.0003 8800 1
(-0.13217 0.053142 0.00046439)(8.3232 0 0) 0.0003 8800 1
(-0.13217 0.052955 0.0024299)(6.4558 0 0) 0.0003 8800 1
(-0.13217 0.034814 -0.00085225)(5.9081 0 0) 0.0003 8800 1
(-0.13217 0.034615 0.0017057)(5.2779 0 0) 0.0003 8800 1
(-0.13217 0.036683 -0.00023406)(7.031 0 0) 0.0003 8800 1
(-0.13217 0.028927 -0.0016656)(1.7598 0 0) 0.0003 8800 1
(-0.13217 0.044844 -0.00026089)(9.2877 0 0) 0.0003 8800 1
(-0.13217 0.048184 -0.0043078)(2.4057 0 0) 0.0003 8800 1
(-0.13217 0.066463 8.327e-05)(0.12838 0 0) 0.0003 8800 1
(-0.13217 0.066109 -0.0028367)(0.3095 0 0) 0.0003 8800 1
(-0.13217 0.039722 0.0040264)(2.9028 0 0) 0.0003 8800 1
(-0.13217 0.052644 -0.0020289)(7.1357 0 0) 0.0003 8800 1
(-0.13217 0.033791 0.001555)(4.9578 0 0) 0.0003 8800 1
(-0.13217 0.063785 -0.00058451)(2.4294 0 0) 0.0003 8800 1
(-0.13217 0.055338 0.0036869)(3.4718 0 0) 0.0003 8800 1
(-0.13217 0.063061 0.0020789)(2.5113 0 0) 0.0003 8800 1
(-0.13217 0.052439 0.00033669)(8.5602 0 0) 0.0003 8800 1
(-0.13217 0.058672 0.0046418)(0.82607 0 0) 0.0003 8800 1
(-0.13217 0.05796 0.0030886)(3.9407 0 0) 0.0003 8800 1
(-0.13217 0.053415 -0.0046089)(1.2492 0 0) 0.0003 8800 1
(-0.13217 0.034728 -0.0021464)(4.9241 0 0) 0.0003 8800 1
(-0.13217 0.057045 -0.0013387)(6.3503 0 0) 0.0003 8800 1
(-0.13217 0.048086 -0.0013862)(8.6234 0 0) 0.0003 8800 1
(-0.13217 0.038638 0.00367)(3.6324 0 0) 0.0003 8800 1
(-0.13217 0.033756 0.0031525)(3.2942 0 0) 0.0003 8800 1
(-0.13217 0.065566 -0.0010023)(0.90991 0 0) 0.0003 8800 1
(-0.13217 0.055708 -0.0023059)(5.8686 0 0) 0.0003 8800 1
(-0.13217 0.053618 0.0042993)(2.1489 0 0) 0.0003 8800 1
(-0.13217 0.054749 0.0017536)(6.8778 0 0) 0.0003 8800 1
(-0.13217 0.034822 0.00097337)(5.8587 0 0) 0.0003 8800 1
(-0.13217 0.059837 -0.0021708)(4.2905 0 0) 0.0003 8800 1
(-0.13217 0.040775 -0.00016096)(8.5669 0 0) 0.0003 8800 1
(-0.13217 0.0583 -0.0031085)(3.7961 0 0) 0.0003 8800 1
(-0.13217 0.038246 -0.0016435)(6.8891 0 0) 0.0003 8800 1
(-0.13217 0.058585 -0.0014909)(5.4931 0 0) 0.0003 8800 1
(-0.13217 0.045481 -0.0011165)(8.8912 0 0) 0.0003 8800 1
(-0.13217 0.043471 0.0033289)(5.0951 0 0) 0.0003 8800 1
(-0.13217 0.051099 -0.0038318)(3.6823 0 0) 0.0003 8800 1
(-0.13217 0.040997 -0.0032675)(4.9479 0 0) 0.0003 8800 1
(-0.13217 0.064713 -0.0011285)(1.6057 0 0) 0.0003 8800 1
(-0.13217 0.065738 0.0030532)(0.49763 0 0) 0.0003 8800 1
(-0.13217 0.040025 0.00026834)(8.3305 0 0) 0.0003 8800 1
(-0.13217 0.047206 0.0028262)(6.3851 0 0) 0.0003 8800 1
(-0.13217 0.03898 -0.00043508)(7.9415 0 0) 0.0003 8800 1
(-0.13217 0.05855 -0.0031802)(3.6018 0 0) 0.0003 8800 1
(-0.13217 0.033608 -0.0049343)(0.14037 0 0) 0.0003 8800 1
(-0.13217 0.027457 -0.0031805)(0.41615 0 0) 0.0003 8800 1
(-0.13217 0.038531 -0.0035527)(3.8793 0 0) 0.0003 8800 1
(-0.13217 0.026936 -0.0038852)(0.087626 0 0) 0.0003 8800 1
(-0.13217 0.056573 -0.0034434)(3.7152 0 0) 0.0003 8800 1
(-0.13217 0.027574 -0.0033022)(0.45353 0 0) 0.0003 8800 1
(-0.13217 0.038989 0.0028505)(5.4034 0 0) 0.0003 8800 1
(-0.13217 0.049098 -0.0030956)(5.7034 0 0) 0.0003 8800 1
(-0.13217 0.060353 -0.00024008)(4.9483 0 0) 0.0003 8800 1
(-0.13217 0.058647 0.0022825)(4.7451 0 0) 0.0003 8800 1
(-0.13217 0.063098 0.00031534)(2.9951 0 0) 0.0003 8800 1
(-0.13217 0.055383 0.0033354)(4.2127 0 0) 0.0003 8800 1
(-0.13217 0.059833 0.0030559)(3.3139 0 0) 0.0003 8800 1
(-0.13217 0.042965 -0.0001888)(9.0566 0 0) 0.0003 8800 1
(-0.13217 0.061293 -0.0033953)(2.3341 0 0) 0.0003 8800 1
(-0.13217 0.034477 -0.0048956)(0.24347 0 0) 0.0003 8800 1
(-0.13217 0.032431 0.0010523)(4.4155 0 0) 0.0003 8800 1
(-0.13217 0.065045 -0.001316)(1.3094 0 0) 0.0003 8800 1
(-0.13217 0.036293 -0.00061044)(6.757 0 0) 0.0003 8800 1
(-0.13217 0.040582 0.0017705)(7.4528 0 0) 0.0003 8800 1
(-0.13217 0.041073 -0.00014585)(8.6489 0 0) 0.0003 8800 1
(-0.13217 0.045497 0.0034951)(4.7858 0 0) 0.0003 8800 1
(-0.13217 0.054031 -0.0044929)(1.5606 0 0) 0.0003 8800 1
(-0.13217 0.027502 -0.0042825)(0.19696 0 0) 0.0003 8800 1
(-0.13217 0.042287 0.0033893)(4.8326 0 0) 0.0003 8800 1
(-0.13217 0.058498 -0.0027465)(4.2444 0 0) 0.0003 8800 1
(-0.13217 0.027384 -0.0037809)(0.27096 0 0) 0.0003 8800 1
(-0.13217 0.043114 0.00017513)(9.0838 0 0) 0.0003 8800 1
(-0.13217 0.050065 -0.00045405)(9.0396 0 0) 0.0003 8800 1
(-0.13217 0.053711 0.0026224)(5.9544 0 0) 0.0003 8800 1
(-0.13217 0.050537 0.004686)(1.0991 0 0) 0.0003 8800 1
(-0.13217 0.050508 0.0023774)(6.9954 0 0) 0.0003 8800 1
(-0.13217 0.047467 0.0020539)(7.7925 0 0) 0.0003 8800 1
(-0.13217 0.035147 0.0024338)(4.7831 0 0) 0.0003 8800 1
(-0.13217 0.05235 0.0046665)(1.1119 0 0) 0.0003 8800 1
(-0.13217 0.030415 -0.00095436)(3.0559 0 0) 0.0003 8800 1
(-0.13217 0.044589 0.0017694)(8.1264 0 0) 0.0003 8800 1
(-0.13217 0.058202 -0.0018464)(5.3903 0 0) 0.0003 8800 1
(-0.13217 0.048296 0.0004851)(9.2383 0 0) 0.0003 8800 1
(-0.13217 0.050177 -0.0031089)(5.5797 0 0) 0.0003 8800 1
(-0.13217 0.061651 -0.0011596)(3.8616 0 0) 0.0003 8800 1
(-0.13217 0.026822 -0.0035791)(0.056037 0 0) 0.0003 8800 1
(-0.13217 0.060647 -0.0035843)(2.3179 0 0) 0.0003 8800 1
(-0.13217 0.062967 0.0027996)(2.1341 0 0) 0.0003 8800 1
(-0.13217 0.036149 -0.0032885)(3.852 0 0) 0.0003 8800 1
(-0.13217 0.062449 -0.0043983)(0.79189 0 0) 0.0003 8800 1
(-0.13217 0.05105 0.0014827)(8.1476 0 0) 0.0003 8800 1
(-0.13217 0.050667 -0.0031356)(5.4662 0 0) 0.0003 8800 1
(-0.13217 0.026916 0.0035926)(0.097746 0 0) 0.0003 8800 1
(-0.13217 0.054119 -0.0030037)(5.1601 0 0) 0.0003 8800 1
(-0.13217 0.049364 0.0047297)(0.96961 0 0) 0.0003 8800 1
(-0.13217 0.040269 -0.001429)(7.7409 0 0) 0.0003 8800 1
(-0.13217 0.041915 -0.0041004)(2.9016 0 0) 0.0003 8800 1
(-0.13217 0.04385 0.0031771)(5.4885 0 0) 0.0003 8800 1
(-0.13217 0.062958 -0.0047683)(0.2821 0 0) 0.0003 8800 1
(-0.13217 0.039726 0.0025481)(6.114 0 0) 0.0003 8800 1
(-0.13217 0.05875 0.00014684)(5.9306 0 0) 0.0003 8800 1
(-0.13217 0.053146 0.0028941)(5.5821 0 0) 0.0003 8800 1
(-0.13217 0.040038 -0.0038458)(3.4135 0 0) 0.0003 8800 1
(-0.13217 0.033827 -0.0018881)(4.7247 0 0) 0.0003 8800 1
(-0.13217 0.04934 -0.0013699)(8.5272 0 0) 0.0003 8800 1
(-0.13217 0.051582 0.00044715)(8.7455 0 0) 0.0003 8800 1
(-0.13217 0.058466 0.0011148)(5.7928 0 0) 0.0003 8800 1
(-0.13217 0.04308 0.0049225)(0.27952 0 0) 0.0003 8800 1
(-0.13217 0.047132 0.0043624)(2.2408 0 0) 0.0003 8800 1
(-0.13217 0.054151 -0.0022278)(6.462 0 0) 0.0003 8800 1
(-0.13217 0.064331 -0.0038382)(0.82757 0 0) 0.0003 8800 1
(-0.13217 0.065464 -0.0034507)(0.54409 0 0) 0.0003 8800 1
(-0.13217 0.053739 0.0029913)(5.268 0 0) 0.0003 8800 1
(-0.13217 0.064457 0.002171)(1.5491 0 0) 0.0003 8800 1
(-0.13217 0.065425 -0.0047739)(0.094885 0 0) 0.0003 8800 1
(-0.13217 0.037322 0.0023859)(5.6663 0 0) 0.0003 8800 1
(-0.13217 0.046512 -0.0019977)(7.8907 0 0) 0.0003 8800 1
(-0.13217 0.052529 -0.0010444)(8.2004 0 0) 0.0003 8800 1
(-0.13217 0.04004 0.0034455)(4.3896 0 0) 0.0003 8800 1
(-0.13217 0.027157 -0.0034191)(0.22644 0 0) 0.0003 8800 1
(-0.13217 0.033741 0.002993)(3.5026 0 0) 0.0003 8800 1
(-0.13217 0.052201 0.0038947)(3.4069 0 0) 0.0003 8800 1
(-0.13217 0.052925 0.0020469)(7.043 0 0) 0.0003 8800 1
(-0.13217 0.056314 0.00034463)(7.1525 0 0) 0.0003 8800 1
(-0.13217 0.046464 -0.00050087)(9.295 0 0) 0.0003 8800 1
(-0.13217 0.063775 -0.0029476)(1.6122 0 0) 0.0003 8800 1
(-0.13217 0.050623 -0.001829)(7.8109 0 0) 0.0003 8800 1
(-0.13217 0.032381 -0.0015901)(4.1227 0 0) 0.0003 8800 1
(-0.13217 0.052896 0.0047082)(0.95971 0 0) 0.0003 8800 1
(-0.13217 0.057424 -0.0017634)(5.8239 0 0) 0.0003 8800 1
(-0.13217 0.058985 0.0045607)(0.97447 0 0) 0.0003 8800 1
(-0.13217 0.04387 -0.0045208)(1.6804 0 0) 0.0003 8800 1
(-0.13217 0.063541 -0.004619)(0.38977 0 0) 0.0003 8800 1
(-0.13217 0.0275 0.0045054)(0.13872 0 0) 0.0003 8800 1
(-0.13217 0.036884 -0.0019752)(6.0258 0 0) 0.0003 8800 1
(-0.13217 0.047548 0.0029189)(6.1774 0 0) 0.0003 8800 1
(-0.13217 0.027499 0.00013615)(0.73678 0 0) 0.0003 8800 1
(-0.13217 0.065734 0.0043788)(0.18591 0 0) 0.0003 8800 1
(-0.13217 0.032331 0.0027987)(3.126 0 0) 0.0003 8800 1
(-0.13217 0.036471 0.00038639)(6.9042 0 0) 0.0003 8800 1
(-0.13217 0.061105 0.0023707)(3.4575 0 0) 0.0003 8800 1
(-0.13217 0.043906 -0.0026772)(6.5712 0 0) 0.0003 8800 1
(-0.13217 0.036602 -0.0046976)(0.82202 0 0) 0.0003 8800 1
(-0.13217 0.049186 0.002923)(6.0811 0 0) 0.0003 8800 1
(-0.13217 0.039042 0.0015387)(7.2646 0 0) 0.0003 8800 1
(-0.13217 0.056468 0.0042974)(1.8594 0 0) 0.0003 8800 1
(-0.13217 0.056992 0.003671)(3.1651 0 0) 0.0003 8800 1
(-0.13217 0.050921 0.00098224)(8.6138 0 0) 0.0003 8800 1
(-0.13217 0.038425 0.00024049)(7.7759 0 0) 0.0003 8800 1
(-0.13217 0.059966 0.0019819)(4.3883 0 0) 0.0003 8800 1
(-0.13217 0.057481 0.001718)(5.8404 0 0) 0.0003 8800 1
(-0.13217 0.033615 0.0028471)(3.6367 0 0) 0.0003 8800 1
(-0.13217 0.061827 -0.0023217)(3.1025 0 0) 0.0003 8800 1
(-0.13217 0.036678 0.0044642)(1.4289 0 0) 0.0003 8800 1
(-0.13217 0.06318 0.00039744)(2.9252 0 0) 0.0003 8800 1
(-0.13217 0.053152 0.00055314)(8.2898 0 0) 0.0003 8800 1
(-0.13217 0.029132 0.0034327)(1.1365 0 0) 0.0003 8800 1
(-0.13217 0.03998 -0.0011894)(7.8684 0 0) 0.0003 8800 1
(-0.13217 0.032341 0.0041326)(1.4446 0 0) 0.0003 8800 1
(-0.13217 0.055601 -0.0023081)(5.9017 0 0) 0.0003 8800 1
(-0.13217 0.029046 0.004334)(0.51687 0 0) 0.0003 8800 1
(-0.13217 0.05115 -0.0013727)(8.2405 0 0) 0.0003 8800 1
(-0.13217 0.055288 -0.0016551)(6.7935 0 0) 0.0003 8800 1
(-0.13217 0.053419 0.0019801)(7.0058 0 0) 0.0003 8800 1
(-0.13217 0.04908 -0.0027246)(6.5037 0 0) 0.0003 8800 1
(-0.13217 0.056315 -0.0028117)(4.9138 0 0) 0.0003 8800 1
(-0.13217 0.04636 0.0003501)(9.342 0 0) 0.0003 8800 1
(-0.13217 0.02996 -0.00077743)(2.7501 0 0) 0.0003 8800 1
(-0.13217 0.030333 -0.0047651)(0.28526 0 0) 0.0003 8800 1
(-0.13217 0.032076 -0.0040415)(1.5179 0 0) 0.0003 8800 1
(-0.13217 0.05711 0.00063782)(6.6978 0 0) 0.0003 8800 1
(-0.13217 0.049345 -0.0010095)(8.8429 0 0) 0.0003 8800 1
(-0.13217 0.040815 0.0034949)(4.3915 0 0) 0.0003 8800 1
(-0.13217 0.0629 0.0031731)(1.8873 0 0) 0.0003 8800 1
(-0.13217 0.031022 -0.0041253)(1.1583 0 0) 0.0003 8800 1
(-0.13217 0.039252 0.0013962)(7.4673 0 0) 0.0003 8800 1
(-0.13217 0.036095 0.00022629)(6.7478 0 0) 0.0003 8800 1
(-0.13217 0.061328 0.0047793)(0.37183 0 0) 0.0003 8800 1
(-0.13217 0.035124 0.0039064)(2.4373 0 0) 0.0003 8800 1
(-0.13217 0.034721 -0.00317)(3.6079 0 0) 0.0003 8800 1
(-0.13217 0.027589 0.0044698)(0.16424 0 0) 0.0003 8800 1
(-0.13217 0.049938 0.00077515)(8.9154 0 0) 0.0003 8800 1
(-0.13217 0.030224 0.0026629)(2.1668 0 0) 0.0003 8800 1
(-0.13217 0.052968 -0.0048895)(0.36938 0 0) 0.0003 8800 1
(-0.13217 0.033552 -0.00019757)(5.3343 0 0) 0.0003 8800 1
(-0.13217 0.062399 -0.0030747)(2.2003 0 0) 0.0003 8800 1
(-0.13217 0.027952 -0.0012136)(1.0747 0 0) 0.0003 8800 1
(-0.13217 0.049403 -0.00057211)(9.0906 0 0) 0.0003 8800 1
(-0.13217 0.036429 -0.0047389)(0.70446 0 0) 0.0003 8800 1
(-0.13217 0.031921 -3.1606e-05)(4.2715 0 0) 0.0003 8800 1
(-0.13217 0.048847 -0.0027215)(6.528 0 0) 0.0003 8800 1
(-0.13217 0.044736 0.0039761)(3.4202 0 0) 0.0003 8800 1
(-0.13217 0.02996 0.0016014)(2.5287 0 0) 0.0003 8800 1
(-0.13217 0.060256 0.0048716)(0.25456 0 0) 0.0003 8800 1
(-0.13217 0.042664 0.00012954)(9.009 0 0) 0.0003 8800 1
(-0.13217 0.052418 0.0011879)(8.1194 0 0) 0.0003 8800 1
(-0.13217 0.05665 0.0049595)(0.11338 0 0) 0.0003 8800 1
(-0.13217 0.065777 0.0049952)(0.0014436 0 0) 0.0003 8800 1
(-0.13217 0.060436 -0.0044525)(1.0155 0 0) 0.0003 8800 1
(-0.13217 0.043749 0.0049056)(0.34372 0 0) 0.0003 8800 1
(-0.13217 0.041058 -0.0030757)(5.3783 0 0) 0.0003 8800 1
(-0.13217 0.046678 0.0041451)(2.9365 0 0) 0.0003 8800 1
(-0.13217 0.0351 -0.0020639)(5.1791 0 0) 0.0003 8800 1
(-0.13217 0.044321 -0.0031834)(5.5076 0 0) 0.0003 8800 1
(-0.13217 0.027387 9.6858e-05)(0.63574 0 0) 0.0003 8800 1
(-0.13217 0.030749 -0.0020994)(2.8209 0 0) 0.0003 8800 1
(-0.13217 0.039113 0.00090908)(7.7838 0 0) 0.0003 8800 1
(-0.13217 0.02725 0.0032413)(0.29625 0 0) 0.0003 8800 1
(-0.13217 0.041749 -0.00050398)(8.7336 0 0) 0.0003 8800 1
(-0.13217 0.04041 -0.002702)(5.9973 0 0) 0.0003 8800 1
(-0.13217 0.057839 0.0018705)(5.5357 0 0) 0.0003 8800 1
(-0.13217 0.03408 0.0035977)(2.7308 0 0) 0.0003 8800 1
(-0.13217 0.033881 0.0014935)(5.0485 0 0) 0.0003 8800 1
(-0.13217 0.041336 -0.0042824)(2.3245 0 0) 0.0003 8800 1
(-0.13217 0.055669 -0.0025105)(5.5875 0 0) 0.0003 8800 1
(-0.13217 0.057169 -0.0030436)(4.2673 0 0) 0.0003 8800 1
(-0.13217 0.033452 0.0030896)(3.2642 0 0) 0.0003 8800 1
(-0.13217 0.046415 -0.00074755)(9.1788 0 0) 0.0003 8800 1
(-0.13217 0.034235 0.0011327)(5.4581 0 0) 0.0003 8800 1
(-0.13217 0.028228 0.0040901)(0.45764 0 0) 0.0003 8800 1
(-0.13217 0.063104 -0.0031835)(1.7854 0 0) 0.0003 8800 1
(-0.13217 0.053925 -0.0010155)(7.8054 0 0) 0.0003 8800 1
(-0.13217 0.060235 -0.0041761)(1.523 0 0) 0.0003 8800 1
(-0.13217 0.054897 -0.0048058)(0.59304 0 0) 0.0003 8800 1
(-0.13217 0.036998 0.0037501)(3.1463 0 0) 0.0003 8800 1
(-0.13217 0.033899 -0.0041828)(1.6672 0 0) 0.0003 8800 1
(-0.13217 0.052644 -0.0042983)(2.2293 0 0) 0.0003 8800 1
(-0.13217 0.039602 0.0014117)(7.5629 0 0) 0.0003 8800 1
(-0.13217 0.055603 0.0015428)(6.7848 0 0) 0.0003 8800 1
(-0.13217 0.029319 -0.0014711)(2.1039 0 0) 0.0003 8800 1
(-0.13217 0.059548 -0.0034597)(2.8486 0 0) 0.0003 8800 1
(-0.13217 0.060052 -0.0044503)(1.0706 0 0) 0.0003 8800 1
(-0.13217 0.03121 0.0036883)(1.7167 0 0) 0.0003 8800 1
(-0.13217 0.030098 0.0029094)(1.9356 0 0) 0.0003 8800 1
(-0.13217 0.047043 0.0019384)(7.9756 0 0) 0.0003 8800 1
(-0.13217 0.059979 -0.004311)(1.334 0 0) 0.0003 8800 1
(-0.13217 0.052315 -0.0027335)(6.0526 0 0) 0.0003 8800 1
(-0.13217 0.06124 -0.0047841)(0.36897 0 0) 0.0003 8800 1
(-0.13217 0.047224 -0.0036247)(4.4515 0 0) 0.0003 8800 1
(-0.13217 0.047897 0.0025991)(6.826 0 0) 0.0003 8800 1
(-0.13217 0.041077 0.0039263)(3.3189 0 0) 0.0003 8800 1
(-0.13217 0.044895 -0.0033106)(5.2327 0 0) 0.0003 8800 1
(-0.13217 0.066558 -0.00022668)(0.039278 0 0) 0.0003 8800 1
(-0.13217 0.030213 0.0035613)(1.4858 0 0) 0.0003 8800 1
(-0.13217 0.049421 0.0012596)(8.6244 0 0) 0.0003 8800 1
(-0.13217 0.032391 0.0021202)(3.7674 0 0) 0.0003 8800 1
(-0.13217 0.050085 0.00066817)(8.949 0 0) 0.0003 8800 1
(-0.13217 0.036844 0.0019383)(6.051 0 0) 0.0003 8800 1
(-0.13217 0.060734 0.0021847)(3.8109 0 0) 0.0003 8800 1
(-0.13217 0.045139 -0.002927)(6.1367 0 0) 0.0003 8800 1
(-0.13217 0.050289 -0.0041982)(2.6779 0 0) 0.0003 8800 1
(-0.13217 0.027865 0.0045546)(0.18128 0 0) 0.0003 8800 1
(-0.13217 0.057282 0.00037034)(6.6861 0 0) 0.0003 8800 1
(-0.13217 0.046166 0.0020173)(7.8568 0 0) 0.0003 8800 1
(-0.13217 0.051663 0.001028)(8.4252 0 0) 0.0003 8800 1
(-0.13217 0.043301 -0.002178)(7.3939 0 0) 0.0003 8800 1
(-0.13217 0.053169 -0.0044913)(1.6199 0 0) 0.0003 8800 1
(-0.13217 0.026711 -0.0036555)(0.0049344 0 0) 0.0003 8800 1
(-0.13217 0.062901 -0.0044787)(0.62444 0 0) 0.0003 8800 1
(-0.13217 0.049997 -0.00056289)(9.0101 0 0) 0.0003 8800 1
(-0.13217 0.036697 0.00355)(3.4974 0 0) 0.0003 8800 1
(-0.13217 0.055815 -0.0040066)(2.6512 0 0) 0.0003 8800 1
(-0.13217 0.037568 -0.0045592)(1.2546 0 0) 0.0003 8800 1
(-0.13217 0.036241 0.0046885)(0.82507 0 0) 0.0003 8800 1
(-0.13217 0.036387 0.0034009)(3.7104 0 0) 0.0003 8800 1
(-0.13217 0.052498 -0.0022433)(6.8555 0 0) 0.0003 8800 1
(-0.13217 0.046261 -0.0049941)(0.022178 0 0) 0.0003 8800 1
(-0.13217 0.041825 0.0026079)(6.4356 0 0) 0.0003 8800 1
(-0.13217 0.036694 -0.0014808)(6.4327 0 0) 0.0003 8800 1
(-0.13217 0.056106 -0.00052724)(7.1993 0 0) 0.0003 8800 1
(-0.13217 0.033622 0.001084)(5.1324 0 0) 0.0003 8800 1
(-0.13217 0.030292 -0.0033706)(1.6784 0 0) 0.0003 8800 1
(-0.13217 0.029215 0.0023463)(1.73 0 0) 0.0003 8800 1
(-0.13217 0.044882 -0.0042178)(2.687 0 0) 0.0003 8800 1
(-0.13217 0.063496 -0.00036948)(2.6802 0 0) 0.0003 8800 1
(-0.13217 0.054642 0.0045916)(1.2352 0 0) 0.0003 8800 1
(-0.13217 0.041103 -0.0007246)(8.4822 0 0) 0.0003 8800 1
(-0.13217 0.0476 -0.00091179)(9.0572 0 0) 0.0003 8800 1
(-0.13217 0.063238 -0.0049623)(0.043553 0 0) 0.0003 8800 1
(-0.13217 0.057426 -0.0031634)(3.9882 0 0) 0.0003 8800 1
(-0.13217 0.039396 -0.0029236)(5.3626 0 0) 0.0003 8800 1
(-0.13217 0.060281 0.0034257)(2.6562 0 0) 0.0003 8800 1
(-0.13217 0.060534 0.0029718)(3.1315 0 0) 0.0003 8800 1
(-0.13217 0.040181 -0.00061255)(8.2765 0 0) 0.0003 8800 1
(-0.13217 0.051229 0.0037551)(3.8781 0 0) 0.0003 8800 1
(-0.13217 0.037161 -0.00063677)(7.1478 0 0) 0.0003 8800 1
(-0.13217 0.028266 -0.0022013)(1.1418 0 0) 0.0003 8800 1
(-0.13217 0.03832 0.00049194)(7.6781 0 0) 0.0003 8800 1
(-0.13217 0.061638 0.0016663)(3.6357 0 0) 0.0003 8800 1
(-0.13217 0.03369 -0.0022309)(4.3466 0 0) 0.0003 8800 1
(-0.13217 0.04978 0.0015844)(8.2392 0 0) 0.0003 8800 1
(-0.13217 0.035141 0.00027736)(6.2456 0 0) 0.0003 8800 1
(-0.13217 0.045584 0.0043122)(2.3987 0 0) 0.0003 8800 1
(-0.13217 0.037906 -0.00040276)(7.5369 0 0) 0.0003 8800 1
(-0.13217 0.04606 -0.0035124)(4.752 0 0) 0.0003 8800 1
(-0.13217 0.040617 0.0047461)(0.8443 0 0) 0.0003 8800 1
(-0.13217 0.06303 0.0045237)(0.55515 0 0) 0.0003 8800 1
(-0.13217 0.03578 0.0038574)(2.6727 0 0) 0.0003 8800 1
(-0.13217 0.042309 0.0049139)(0.30531 0 0) 0.0003 8800 1
(-0.13217 0.061152 0.0044116)(0.98099 0 0) 0.0003 8800 1
(-0.13217 0.049783 -0.0027558)(6.3764 0 0) 0.0003 8800 1
(-0.13217 0.042146 0.0047926)(0.724 0 0) 0.0003 8800 1
(-0.13217 0.042038 0.0035365)(4.4417 0 0) 0.0003 8800 1
(-0.13217 0.058616 0.00017968)(6.0043 0 0) 0.0003 8800 1
(-0.13217 0.066287 -0.0032922)(0.16569 0 0) 0.0003 8800 1
(-0.13217 0.028073 0.002262)(0.99272 0 0) 0.0003 8800 1
(-0.13217 0.036287 0.0045542)(1.1682 0 0) 0.0003 8800 1
(-0.13217 0.059955 -0.002757)(3.6284 0 0) 0.0003 8800 1
(-0.13217 0.06615 0.0014566)(0.38346 0 0) 0.0003 8800 1
(-0.13217 0.031297 -0.00064131)(3.7661 0 0) 0.0003 8800 1
(-0.13217 0.035914 -0.00059462)(6.5762 0 0) 0.0003 8800 1
(-0.13217 0.035612 -0.00081031)(6.3442 0 0) 0.0003 8800 1
(-0.13217 0.042347 -0.0027352)(6.2738 0 0) 0.0003 8800 1
(-0.13217 0.040125 -0.002324)(6.5737 0 0) 0.0003 8800 1
(-0.13217 0.062743 -0.00095536)(3.1599 0 0) 0.0003 8800 1
(-0.13217 0.028668 -0.0034737)(0.91116 0 0) 0.0003 8800 1
(-0.13217 0.042506 0.00026296)(8.9599 0 0) 0.0003 8800 1
(-0.13217 0.035755 -0.00035518)(6.5561 0 0) 0.0003 8800 1
(-0.13217 0.062771 0.0030376)(2.0558 0 0) 0.0003 8800 1
(-0.13217 0.065952 -0.0039786)(0.22006 0 0) 0.0003 8800 1
(-0.13217 0.027069 0.00060902)(0.33882 0 0) 0.0003 8800 1
(-0.13217 0.058883 0.0010325)(5.6095 0 0) 0.0003 8800 1
(-0.13217 0.036891 0.0020502)(5.9421 0 0) 0.0003 8800 1
(-0.13217 0.035306 -0.0011159)(6.0376 0 0) 0.0003 8800 1
(-0.13217 0.057152 -0.0044887)(1.3172 0 0) 0.0003 8800 1
(-0.13217 0.055995 -0.0003227)(7.2989 0 0) 0.0003 8800 1
(-0.13217 0.045821 0.00389)(3.6998 0 0) 0.0003 8800 1
(-0.13217 0.034398 0.0036246)(2.7752 0 0) 0.0003 8800 1
(-0.13217 0.041004 -0.0031302)(5.2525 0 0) 0.0003 8800 1
(-0.13217 0.052295 0.0015157)(7.8443 0 0) 0.0003 8800 1
(-0.13217 0.029464 0.0027412)(1.6936 0 0) 0.0003 8800 1
(-0.13217 0.035892 -0.0012228)(6.261 0 0) 0.0003 8800 1
(-0.13217 0.044523 0.0012762)(8.6785 0 0) 0.0003 8800 1
(-0.13217 0.062963 0.00034242)(3.0967 0 0) 0.0003 8800 1
(-0.13217 0.026701 -0.0026887)(0.00076068 0 0) 0.0003 8800 1
(-0.13217 0.032305 -0.0020418)(3.7788 0 0) 0.0003 8800 1
(-0.13217 0.04314 0.0040971)(2.9894 0 0) 0.0003 8800 1
(-0.13217 0.050512 0.0037451)(3.9675 0 0) 0.0003 8800 1
(-0.13217 0.03878 -0.0025607)(5.8493 0 0) 0.0003 8800 1
(-0.13217 0.055073 8.2453e-05)(7.714 0 0) 0.0003 8800 1
(-0.13217 0.037109 0.0034694)(3.7554 0 0) 0.0003 8800 1
(-0.13217 0.045045 0.0023989)(7.1818 0 0) 0.0003 8800 1
(-0.13217 0.05106 -0.0025141)(6.6731 0 0) 0.0003 8800 1
(-0.13217 0.02795 0.00076124)(1.1137 0 0) 0.0003 8800 1
(-0.13217 0.03681 0.00019568)(7.0948 0 0) 0.0003 8800 1
(-0.13217 0.064242 -0.0020892)(1.7238 0 0) 0.0003 8800 1
(-0.13217 0.027452 0.00072657)(0.67995 0 0) 0.0003 8800 1
(-0.13217 0.036186 -0.0033234)(3.7995 0 0) 0.0003 8800 1
(-0.13217 0.031255 -0.0011367)(3.6024 0 0) 0.0003 8800 1
(-0.13217 0.054508 8.5039e-05)(7.9307 0 0) 0.0003 8800 1
(-0.13217 0.055181 -0.0001945)(7.6613 0 0) 0.0003 8800 1
(-0.13217 0.042573 0.0048606)(0.4946 0 0) 0.0003 8800 1
(-0.13217 0.051856 -0.0026639)(6.2667 0 0) 0.0003 8800 1
(-0.13217 0.029449 -0.0027204)(1.6963 0 0) 0.0003 8800 1
(-0.13217 0.04782 0.0012198)(8.8008 0 0) 0.0003 8800 1
(-0.13217 0.031397 0.0006461)(3.8357 0 0) 0.0003 8800 1
(-0.13217 0.035285 0.0038751)(2.5329 0 0) 0.0003 8800 1
(-0.13217 0.051675 -0.0019904)(7.4006 0 0) 0.0003 8800 1
(-0.13217 0.052451 -0.0013345)(7.9838 0 0) 0.0003 8800 1
(-0.13217 0.062207 -0.0034836)(1.8936 0 0) 0.0003 8800 1
(-0.13217 0.029945 -0.0030261)(1.7784 0 0) 0.0003 8800 1
(-0.13217 0.063751 -0.0016092)(2.2323 0 0) 0.0003 8800 1
(-0.13217 0.043257 5.7849e-06)(9.1184 0 0) 0.0003 8800 1
(-0.13217 0.03487 0.0023896)(4.7192 0 0) 0.0003 8800 1
(-0.13217 0.066337 -0.0045615)(0.041245 0 0) 0.0003 8800 1
(-0.13217 0.04243 0.00028596)(8.9404 0 0) 0.0003 8800 1
(-0.13217 0.049238 7.8298e-05)(9.2297 0 0) 0.0003 8800 1
(-0.13217 0.057347 0.0029783)(4.3166 0 0) 0.0003 8800 1
(-0.13217 0.061718 0.00018665)(4.0276 0 0) 0.0003 8800 1
(-0.13217 0.030863 -0.003658)(1.6314 0 0) 0.0003 8800 1
(-0.13217 0.034712 0.00061464)(5.9363 0 0) 0.0003 8800 1
(-0.13217 0.062586 0.0031419)(2.0567 0 0) 0.0003 8800 1
(-0.13217 0.061113 -0.00023335)(4.4454 0 0) 0.0003 8800 1
(-0.13217 0.031139 -0.002875)(2.4861 0 0) 0.0003 8800 1
(-0.13217 0.047902 0.0028797)(6.2505 0 0) 0.0003 8800 1
(-0.13217 0.050062 0.001449)(8.3498 0 0) 0.0003 8800 1
(-0.13217 0.030747 -0.00070731)(3.3549 0 0) 0.0003 8800 1
(-0.13217 0.051853 0.0034071)(4.6876 0 0) 0.0003 8800 1
(-0.13217 0.064407 0.0047982)(0.15432 0 0) 0.0003 8800 1
(-0.13217 0.053292 -0.00072864)(8.1718 0 0) 0.0003 8800 1
(-0.13217 0.030588 -0.0026312)(2.3889 0 0) 0.0003 8800 1
(-0.13217 0.032943 -0.0033891)(2.6798 0 0) 0.0003 8800 1
(-0.13217 0.036154 -0.0030028)(4.3417 0 0) 0.0003 8800 1
(-0.13217 0.049462 0.0020504)(7.6557 0 0) 0.0003 8800 1
(-0.13217 0.029982 -0.00083645)(2.756 0 0) 0.0003 8800 1
(-0.13217 0.03105 -0.0034575)(1.9037 0 0) 0.0003 8800 1
(-0.13217 0.046757 0.0045122)(1.7427 0 0) 0.0003 8800 1
(-0.13217 0.049775 0.0028063)(6.2742 0 0) 0.0003 8800 1
(-0.13217 0.029645 -0.0015064)(2.3345 0 0) 0.0003 8800 1
(-0.13217 0.031463 -0.00033757)(3.9301 0 0) 0.0003 8800 1
(-0.13217 0.028437 0.0027254)(1.0994 0 0) 0.0003 8800 1
(-0.13217 0.063034 0.0020931)(2.5209 0 0) 0.0003 8800 1
(-0.13217 0.06016 -0.00040566)(5.0501 0 0) 0.0003 8800 1
(-0.13217 0.031591 -0.0010556)(3.8598 0 0) 0.0003 8800 1
(-0.13217 0.057372 0.0047327)(0.69495 0 0) 0.0003 8800 1
(-0.13217 0.038412 0.0034122)(4.1614 0 0) 0.0003 8800 1
(-0.13217 0.039842 0.001119)(7.8809 0 0) 0.0003 8800 1
(-0.13217 0.049497 0.00053306)(9.0942 0 0) 0.0003 8800 1
(-0.13217 0.038151 0.0023221)(6.0281 0 0) 0.0003 8800 1
(-0.13217 0.04717 -0.001319)(8.7306 0 0) 0.0003 8800 1
(-0.13217 0.03665 0.0020639)(5.8328 0 0) 0.0003 8800 1
(-0.13217 0.05856 -0.0035513)(2.9947 0 0) 0.0003 8800 1
(-0.13217 0.064027 0.0025886)(1.6586 0 0) 0.0003 8800 1
(-0.13217 0.047211 0.0043929)(2.1402 0 0) 0.0003 8800 1
(-0.13217 0.03647 0.00069579)(6.8105 0 0) 0.0003 8800 1
(-0.13217 0.047909 0.002373)(7.246 0 0) 0.0003 8800 1
(-0.13217 0.044313 -0.00025817)(9.2364 0 0) 0.0003 8800 1
(-0.13217 0.056141 0.00070418)(7.1206 0 0) 0.0003 8800 1
(-0.13217 0.065469 0.0019364)(0.87958 0 0) 0.0003 8800 1
(-0.13217 0.048058 0.00096347)(8.9963 0 0) 0.0003 8800 1
(-0.13217 0.040631 -0.00019377)(8.5225 0 0) 0.0003 8800 1
(-0.13217 0.036755 -0.0027216)(4.9822 0 0) 0.0003 8800 1
(-0.13217 0.05037 0.0011886)(8.5514 0 0) 0.0003 8800 1
(-0.13217 0.066078 -0.0038278)(0.20077 0 0) 0.0003 8800 1
(-0.13217 0.051129 0.0029348)(5.8447 0 0) 0.0003 8800 1
(-0.13217 0.034364 -0.0046609)(0.76375 0 0) 0.0003 8800 1
(-0.13217 0.051439 -0.0011058)(8.4162 0 0) 0.0003 8800 1
(-0.13217 0.039358 0.0046488)(1.1026 0 0) 0.0003 8800 1
(-0.13217 0.062258 -0.00061273)(3.5875 0 0) 0.0003 8800 1
(-0.13217 0.046399 0.0037034)(4.2379 0 0) 0.0003 8800 1
(-0.13217 0.037983 4.0519e-06)(7.6176 0 0) 0.0003 8800 1
(-0.13217 0.048616 -0.0036769)(4.2701 0 0) 0.0003 8800 1
(-0.13217 0.040286 -0.0031233)(5.1433 0 0) 0.0003 8800 1
(-0.13217 0.059788 -0.0031046)(3.2677 0 0) 0.0003 8800 1
(-0.13217 0.040699 0.0021395)(6.988 0 0) 0.0003 8800 1
(-0.13217 0.061664 -0.00059917)(4.0131 0 0) 0.0003 8800 1
(-0.13217 0.058916 0.0039146)(2.2606 0 0) 0.0003 8800 1
(-0.13217 0.040799 0.0016268)(7.6738 0 0) 0.0003 8800 1
(-0.13217 0.061888 0.0036021)(1.8817 0 0) 0.0003 8800 1
(-0.13217 0.031419 -0.002235)(3.1345 0 0) 0.0003 8800 1
(-0.13217 0.037999 0.0046595)(1.0031 0 0) 0.0003 8800 1
(-0.13217 0.064606 -0.0012761)(1.6674 0 0) 0.0003 8800 1